17

Ar 26.227 28.7777 22.8229
Ar 28.5355 25.7046 28.1572
Ar 21.8994 25.582 25.901
Ar 26.3883 24.7212 21.3519
Ar 20.1192 24.5539 22.5643
Ar 23.8976 23.0288 27.97
Ar 26.4342 23.7568 30.4683
Ar 29.1467 26.8035 23.2966
Ar 23.6235 28.72 25.4967
Ar 27.0848 21.8679 23.5275
Ar 24.3886 20.2758 25.3723
Ar 29.9217 23.6575 25.1749
Ar 20.2413 28.3043 23.795
Ar 27.3525 28.7608 26.4661
Ar 24.556 26.7386 28.5232
Ar 22.8267 24.1727 19.6979
Ar 20.8424 22.0753 25.8169
